%chk=test1.chk
%mem=16GB
%nprocshared=12
#p ub3lyp/6-311++G(d,p) guess=mix opt=(calcfc,ts,noeigen) freq

ttest1.gjf

0 1
C   1.94183 0.223116 0.077361
C   0.69243 -0.28316 0.488514
C   -0.4983 -0.297161 -1.09932
C   -1.71046 -0.8184 -0.649453
C   -2.87273 -0.156136 -0.149654
C   -3.18052 1.15862 -0.027317
H   -0.425934 0.749601 -1.36589
H   0.120837 -0.962853 -1.69391
H   -1.77736 -1.90075 -0.601121
H   -3.66902 -0.816766 0.177443
F   2.0459 1.52048 -0.185683
F   2.66985 -0.503308 -0.764139
F   0.689065 -1.57351 0.860921
F   0.029761 0.469047 1.37439
Cl   -4.72706 1.65102 0.600895
Cl   -2.1473 2.48038 -0.448365


